/*--------------------------------*- C++ -*----------------------------------*\
| =========                 |                                                 |
| \\      /  F ield         | OpenFOAM: The Open Source CFD Toolbox           |
|  \\    /   O peration     | Version:  plus                                  |
|   \\  /    A nd           | Web:      www.OpenFOAM.com                      |
|    \\/     M anipulation  |                                                 |
\*---------------------------------------------------------------------------*/
FoamFile
{
	version    2.0;
	format     ascii;
	class      dictionary;
	object     blockMeshDict;
}

scale 1;

vertices
(
	(-11.470747627108638 0 -3.670639240674764)
	(17.206121440662955 0 -3.670639240674764)
	(17.206121440662955 4.588299050843455 -3.670639240674764)
	(-11.470747627108638 4.588299050843455 -3.670639240674764)
	(-11.470747627108638 0 2.982394383048246)
	(17.206121440662955 0 2.982394383048246)
	(17.206121440662955 4.588299050843455 2.982394383048246)
	(-11.470747627108638 4.588299050843455 2.982394383048246)
);

edges
(

);

blocks
(
	hex (0 1 2 3 4 5 6 7) (125 20 29) simpleGrading (1 1 1)
);

boundary
(
	inlet
	{
		type patch;
		faces
		(
			(0 4 7 3)
			(3 2 6 7)
			(0 3 2 1)
		);
	}
	midPlane
	{
		type symmetryPlane;
		faces
		(
			(0 1 5 4)
		);
	}
	outlet
	{
		type patch;
		faces
		(
			(2 6 5 1)
		);
	}
	top
	{
		type patch;
		faces
		(
			(4 5 6 7)
		);
	}
);

