/*--------------------------------*- C++ -*----------------------------------*\
| =========                 |                                                 |
| \\      /  F ield         | OpenFOAM: The Open Source CFD Toolbox           |
|  \\    /   O peration     | Version:  plus                                  |
|   \\  /    A nd           | Web:      www.OpenFOAM.com                      |
|    \\/     M anipulation  |                                                 |
\*---------------------------------------------------------------------------*/
FoamFile
{
	version    2.0;
	format     ascii;
	class      dictionary;
	object     blockMeshDict;
}

scale 1;

vertices
(
	(-11.107166809241155 0 -7.0370748620192245)
	(16.660750213861732 0 -7.0370748620192245)
	(16.660750213861732 8.178222136941262 -7.0370748620192245)
	(-11.107166809241155 8.178222136941262 -7.0370748620192245)
	(-11.107166809241155 0 2.852868187305091)
	(16.660750213861732 0 2.852868187305091)
	(16.660750213861732 8.178222136941262 2.852868187305091)
	(-11.107166809241155 8.178222136941262 2.852868187305091)
);

edges
(

);

blocks
(
	hex (0 1 2 3 4 5 6 7) (146 43 52) simpleGrading (1 1 1)
);

boundary
(
	inlet
	{
		type patch;
		faces
		(
			(0 4 7 3)
			(3 2 6 7)
			(0 3 2 1)
		);
	}
	midPlane
	{
		type symmetryPlane;
		faces
		(
			(0 1 5 4)
		);
	}
	outlet
	{
		type patch;
		faces
		(
			(2 6 5 1)
		);
	}
	top
	{
		type patch;
		faces
		(
			(4 5 6 7)
		);
	}
);

