/*--------------------------------*- C++ -*----------------------------------*\
| =========                 |                                                 |
| \\      /  F ield         | OpenFOAM: The Open Source CFD Toolbox           |
|  \\    /   O peration     | Version:  plus                                  |
|   \\  /    A nd           | Web:      www.OpenFOAM.com                      |
|    \\/     M anipulation  |                                                 |
\*---------------------------------------------------------------------------*/
FoamFile
{
	version    2.0;
	format     ascii;
	class      dictionary;
	object     blockMeshDict;
}

scale 1;

vertices
(
	(-11.461133209212967 0 -3.6081345288263043)
	(17.19169981381945 0 -3.6081345288263043)
	(17.19169981381945 4.6693505667163935 -3.6081345288263043)
	(-11.461133209212967 4.6693505667163935 -3.6081345288263043)
	(-11.461133209212967 0 2.9714049060922507)
	(17.19169981381945 0 2.9714049060922507)
	(17.19169981381945 4.6693505667163935 2.9714049060922507)
	(-11.461133209212967 4.6693505667163935 2.9714049060922507)
);

edges
(

);

blocks
(
	hex (0 1 2 3 4 5 6 7) (135 22 31) simpleGrading (1 1 1)
);

boundary
(
	inlet
	{
		type patch;
		faces
		(
			(0 4 7 3)
			(3 2 6 7)
			(0 3 2 1)
		);
	}
	midPlane
	{
		type symmetryPlane;
		faces
		(
			(0 1 5 4)
		);
	}
	outlet
	{
		type patch;
		faces
		(
			(2 6 5 1)
		);
	}
	top
	{
		type patch;
		faces
		(
			(4 5 6 7)
		);
	}
);

