/*--------------------------------*- C++ -*----------------------------------*\
| =========                 |                                                 |
| \\      /  F ield         | OpenFOAM: The Open Source CFD Toolbox           |
|  \\    /   O peration     | Version:  plus                                  |
|   \\  /    A nd           | Web:      www.OpenFOAM.com                      |
|    \\/     M anipulation  |                                                 |
\*---------------------------------------------------------------------------*/
FoamFile
{
	version    2.0;
	format     ascii;
	class      dictionary;
	object     blockMeshDict;
}

scale 1;

vertices
(
	(-11.477544295629203 0 -3.766069222003332)
	(17.2163164434438 0 -3.766069222003332)
	(17.2163164434438 4.662752370099364 -3.766069222003332)
	(-11.477544295629203 4.662752370099364 -3.766069222003332)
	(-11.477544295629203 0 2.8693860739073007)
	(17.2163164434438 0 2.8693860739073007)
	(17.2163164434438 4.662752370099364 2.8693860739073007)
	(-11.477544295629203 4.662752370099364 2.8693860739073007)
);

edges
(

);

blocks
(
	hex (0 1 2 3 4 5 6 7) (160 26 37) simpleGrading (1 1 1)
);

boundary
(
	inlet
	{
		type patch;
		faces
		(
			(0 4 7 3)
			(3 2 6 7)
			(0 3 2 1)
		);
	}
	midPlane
	{
		type symmetryPlane;
		faces
		(
			(0 1 5 4)
		);
	}
	outlet
	{
		type patch;
		faces
		(
			(2 6 5 1)
		);
	}
	top
	{
		type patch;
		faces
		(
			(4 5 6 7)
		);
	}
);

