/*--------------------------------*- C++ -*----------------------------------*\
| =========                 |                                                 |
| \\      /  F ield         | OpenFOAM: The Open Source CFD Toolbox           |
|  \\    /   O peration     | Version:  plus                                  |
|   \\  /    A nd           | Web:      www.OpenFOAM.com                      |
|    \\/     M anipulation  |                                                 |
\*---------------------------------------------------------------------------*/
FoamFile
{
	version    2.0;
	format     ascii;
	class      dictionary;
	object     blockMeshDict;
}

scale 1;

vertices
(
	(-11.481576776496997 0 -3.6967197954630477)
	(17.222365164745494 0 -3.6967197954630477)
	(17.222365164745494 4.566536217924941 -3.6967197954630477)
	(-11.481576776496997 4.566536217924941 -3.6967197954630477)
	(-11.481576776496997 0 3.044357478616628)
	(17.222365164745494 0 3.044357478616628)
	(17.222365164745494 4.566536217924941 3.044357478616628)
	(-11.481576776496997 4.566536217924941 3.044357478616628)
);

edges
(

);

blocks
(
	hex (0 1 2 3 4 5 6 7) (132 21 31) simpleGrading (1 1 1)
);

boundary
(
	inlet
	{
		type patch;
		faces
		(
			(0 4 7 3)
			(3 2 6 7)
			(0 3 2 1)
		);
	}
	midPlane
	{
		type symmetryPlane;
		faces
		(
			(0 1 5 4)
		);
	}
	outlet
	{
		type patch;
		faces
		(
			(2 6 5 1)
		);
	}
	top
	{
		type patch;
		faces
		(
			(4 5 6 7)
		);
	}
);

