/*--------------------------------*- C++ -*----------------------------------*\
| =========                 |                                                 |
| \\      /  F ield         | OpenFOAM: The Open Source CFD Toolbox           |
|  \\    /   O peration     | Version:  plus                                  |
|   \\  /    A nd           | Web:      www.OpenFOAM.com                      |
|    \\/     M anipulation  |                                                 |
\*---------------------------------------------------------------------------*/
FoamFile
{
	version    2.0;
	format     ascii;
	class      dictionary;
	object     blockMeshDict;
}

scale 1;

vertices
(
	(-11.461307122643145 0 -3.8055121305651065)
	(17.191960683964716 0 -3.8055121305651065)
	(17.191960683964716 4.700926749521602 -3.8055121305651065)
	(-11.461307122643145 4.700926749521602 -3.8055121305651065)
	(-11.461307122643145 0 2.910097511608611)
	(17.191960683964716 0 2.910097511608611)
	(17.191960683964716 4.700926749521602 2.910097511608611)
	(-11.461307122643145 4.700926749521602 2.910097511608611)
);

edges
(

);

blocks
(
	hex (0 1 2 3 4 5 6 7) (128 21 30) simpleGrading (1 1 1)
);

boundary
(
	inlet
	{
		type patch;
		faces
		(
			(0 4 7 3)
			(3 2 6 7)
			(0 3 2 1)
		);
	}
	midPlane
	{
		type symmetryPlane;
		faces
		(
			(0 1 5 4)
		);
	}
	outlet
	{
		type patch;
		faces
		(
			(2 6 5 1)
		);
	}
	top
	{
		type patch;
		faces
		(
			(4 5 6 7)
		);
	}
);

