/*--------------------------------*- C++ -*----------------------------------*\
| =========                 |                                                 |
| \\      /  F ield         | OpenFOAM: The Open Source CFD Toolbox           |
|  \\    /   O peration     | Version:  plus                                  |
|   \\  /    A nd           | Web:      www.OpenFOAM.com                      |
|    \\/     M anipulation  |                                                 |
\*---------------------------------------------------------------------------*/
FoamFile
{
	version    2.0;
	format     ascii;
	class      dictionary;
	object     blockMeshDict;
}

scale 1;

vertices
(
	(-11.064828424868766 0 -7.1642773973970435)
	(16.597242637303147 0 -7.1642773973970435)
	(16.597242637303147 8.1593159248133 -7.1642773973970435)
	(-11.064828424868766 8.1593159248133 -7.1642773973970435)
	(-11.064828424868766 0 2.7861078767655165)
	(16.597242637303147 0 2.7861078767655165)
	(16.597242637303147 8.1593159248133 2.7861078767655165)
	(-11.064828424868766 8.1593159248133 2.7861078767655165)
);

edges
(

);

blocks
(
	hex (0 1 2 3 4 5 6 7) (139 41 50) simpleGrading (1 1 1)
);

boundary
(
	inlet
	{
		type patch;
		faces
		(
			(0 4 7 3)
			(3 2 6 7)
			(0 3 2 1)
		);
	}
	midPlane
	{
		type symmetryPlane;
		faces
		(
			(0 1 5 4)
		);
	}
	outlet
	{
		type patch;
		faces
		(
			(2 6 5 1)
		);
	}
	top
	{
		type patch;
		faces
		(
			(4 5 6 7)
		);
	}
);

