/*--------------------------------*- C++ -*----------------------------------*\
| =========                 |                                                 |
| \\      /  F ield         | OpenFOAM: The Open Source CFD Toolbox           |
|  \\    /   O peration     | Version:  plus                                  |
|   \\  /    A nd           | Web:      www.OpenFOAM.com                      |
|    \\/     M anipulation  |                                                 |
\*---------------------------------------------------------------------------*/
FoamFile
{
	version    2.0;
	format     ascii;
	class      dictionary;
	object     blockMeshDict;
}

scale 1;

vertices
(
	(-11.508643410849704 0 -3.71246561640313)
	(17.262965116274554 0 -3.71246561640313)
	(17.262965116274554 4.6405820205039126 -3.71246561640313)
	(-11.508643410849704 4.6405820205039126 -3.71246561640313)
	(-11.508643410849704 0 3.0163783133275435)
	(17.262965116274554 0 3.0163783133275435)
	(17.262965116274554 4.6405820205039126 3.0163783133275435)
	(-11.508643410849704 4.6405820205039126 3.0163783133275435)
);

edges
(

);

blocks
(
	hex (0 1 2 3 4 5 6 7) (124 20 29) simpleGrading (1 1 1)
);

boundary
(
	inlet
	{
		type patch;
		faces
		(
			(0 4 7 3)
			(3 2 6 7)
			(0 3 2 1)
		);
	}
	midPlane
	{
		type symmetryPlane;
		faces
		(
			(0 1 5 4)
		);
	}
	outlet
	{
		type patch;
		faces
		(
			(2 6 5 1)
		);
	}
	top
	{
		type patch;
		faces
		(
			(4 5 6 7)
		);
	}
);

