/*--------------------------------*- C++ -*----------------------------------*\
| =========                 |                                                 |
| \\      /  F ield         | OpenFOAM: The Open Source CFD Toolbox           |
|  \\    /   O peration     | Version:  plus                                  |
|   \\  /    A nd           | Web:      www.OpenFOAM.com                      |
|    \\/     M anipulation  |                                                 |
\*---------------------------------------------------------------------------*/
FoamFile
{
	version    2.0;
	format     ascii;
	class      dictionary;
	object     blockMeshDict;
}

scale 1;

vertices
(
	(-11.490510649015949 0 -3.7985159170300657)
	(17.23576597352392 0 -3.7985159170300657)
	(17.23576597352392 4.510737651473203 -3.7985159170300657)
	(-11.490510649015949 4.510737651473203 -3.7985159170300657)
	(-11.490510649015949 0 3.0862941825869283)
	(17.23576597352392 0 3.0862941825869283)
	(17.23576597352392 4.510737651473203 3.0862941825869283)
	(-11.490510649015949 4.510737651473203 3.0862941825869283)
);

edges
(

);

blocks
(
	hex (0 1 2 3 4 5 6 7) (121 19 29) simpleGrading (1 1 1)
);

boundary
(
	inlet
	{
		type patch;
		faces
		(
			(0 4 7 3)
			(3 2 6 7)
			(0 3 2 1)
		);
	}
	midPlane
	{
		type symmetryPlane;
		faces
		(
			(0 1 5 4)
		);
	}
	outlet
	{
		type patch;
		faces
		(
			(2 6 5 1)
		);
	}
	top
	{
		type patch;
		faces
		(
			(4 5 6 7)
		);
	}
);

