/*--------------------------------*- C++ -*----------------------------------*\
| =========                 |                                                 |
| \\      /  F ield         | OpenFOAM: The Open Source CFD Toolbox           |
|  \\    /   O peration     | Version:  plus                                  |
|   \\  /    A nd           | Web:      www.OpenFOAM.com                      |
|    \\/     M anipulation  |                                                 |
\*---------------------------------------------------------------------------*/
FoamFile
{
	version    2.0;
	format     ascii;
	class      dictionary;
	object     blockMeshDict;
}

scale 1;

vertices
(
	(-11.492479105357317 0 -3.618002681316192)
	(17.238718658035975 0 -3.618002681316192)
	(17.238718658035975 4.682121116997425 -3.618002681316192)
	(-11.492479105357317 4.682121116997425 -3.618002681316192)
	(-11.492479105357317 0 2.979531619907452)
	(17.238718658035975 0 2.979531619907452)
	(17.238718658035975 4.682121116997425 2.979531619907452)
	(-11.492479105357317 4.682121116997425 2.979531619907452)
);

edges
(

);

blocks
(
	hex (0 1 2 3 4 5 6 7) (135 22 31) simpleGrading (1 1 1)
);

boundary
(
	inlet
	{
		type patch;
		faces
		(
			(0 4 7 3)
			(3 2 6 7)
			(0 3 2 1)
		);
	}
	midPlane
	{
		type symmetryPlane;
		faces
		(
			(0 1 5 4)
		);
	}
	outlet
	{
		type patch;
		faces
		(
			(2 6 5 1)
		);
	}
	top
	{
		type patch;
		faces
		(
			(4 5 6 7)
		);
	}
);

