/*--------------------------------*- C++ -*----------------------------------*\
| =========                 |                                                 |
| \\      /  F ield         | OpenFOAM: The Open Source CFD Toolbox           |
|  \\    /   O peration     | Version:  plus                                  |
|   \\  /    A nd           | Web:      www.OpenFOAM.com                      |
|    \\/     M anipulation  |                                                 |
\*---------------------------------------------------------------------------*/
FoamFile
{
	version    2.0;
	format     ascii;
	class      dictionary;
	object     blockMeshDict;
}

scale 1;

vertices
(
	(-11.452582895748266 0 -3.6242350935912233)
	(17.178874343622397 0 -3.6242350935912233)
	(17.178874343622397 4.530293866989029 -3.6242350935912233)
	(-11.452582895748266 4.530293866989029 -3.6242350935912233)
	(-11.452582895748266 0 2.8993880748729786)
	(17.178874343622397 0 2.8993880748729786)
	(17.178874343622397 4.530293866989029 2.8993880748729786)
	(-11.452582895748266 4.530293866989029 2.8993880748729786)
);

edges
(

);

blocks
(
	hex (0 1 2 3 4 5 6 7) (158 25 36) simpleGrading (1 1 1)
);

boundary
(
	inlet
	{
		type patch;
		faces
		(
			(0 4 7 3)
			(3 2 6 7)
			(0 3 2 1)
		);
	}
	midPlane
	{
		type symmetryPlane;
		faces
		(
			(0 1 5 4)
		);
	}
	outlet
	{
		type patch;
		faces
		(
			(2 6 5 1)
		);
	}
	top
	{
		type patch;
		faces
		(
			(4 5 6 7)
		);
	}
);

