/*--------------------------------*- C++ -*----------------------------------*\
| =========                 |                                                 |
| \\      /  F ield         | OpenFOAM: The Open Source CFD Toolbox           |
|  \\    /   O peration     | Version:  plus                                  |
|   \\  /    A nd           | Web:      www.OpenFOAM.com                      |
|    \\/     M anipulation  |                                                 |
\*---------------------------------------------------------------------------*/
FoamFile
{
	version    2.0;
	format     ascii;
	class      dictionary;
	object     blockMeshDict;
}

scale 1;

vertices
(
	(-11.492479105357315 0 -3.724414524884315)
	(17.23871865803597 0 -3.724414524884315)
	(17.23871865803597 4.611179887952009 -3.724414524884315)
	(-11.492479105357315 4.611179887952009 -3.724414524884315)
	(-11.492479105357315 0 3.0150022344301597)
	(17.23871865803597 0 3.0150022344301597)
	(17.23871865803597 4.611179887952009 3.0150022344301597)
	(-11.492479105357315 4.611179887952009 3.0150022344301597)
);

edges
(

);

blocks
(
	hex (0 1 2 3 4 5 6 7) (162 26 38) simpleGrading (1 1 1)
);

boundary
(
	inlet
	{
		type patch;
		faces
		(
			(0 4 7 3)
			(3 2 6 7)
			(0 3 2 1)
		);
	}
	midPlane
	{
		type symmetryPlane;
		faces
		(
			(0 1 5 4)
		);
	}
	outlet
	{
		type patch;
		faces
		(
			(2 6 5 1)
		);
	}
	top
	{
		type patch;
		faces
		(
			(4 5 6 7)
		);
	}
);

