/*--------------------------------*- C++ -*----------------------------------*\
| =========                 |                                                 |
| \\      /  F ield         | OpenFOAM: The Open Source CFD Toolbox           |
|  \\    /   O peration     | Version:  plus                                  |
|   \\  /    A nd           | Web:      www.OpenFOAM.com                      |
|    \\/     M anipulation  |                                                 |
\*---------------------------------------------------------------------------*/
FoamFile
{
	version    2.0;
	format     ascii;
	class      dictionary;
	object     blockMeshDict;
}

scale 1;

vertices
(
	(-11.446768983909651 0 -3.6737940995655975)
	(17.170153475864474 0 -3.6737940995655975)
	(17.170153475864474 4.6405820205039126 -3.6737940995655975)
	(-11.446768983909651 4.6405820205039126 -3.6737940995655975)
	(-11.446768983909651 0 2.9003637628149455)
	(17.170153475864474 0 2.9003637628149455)
	(17.170153475864474 4.6405820205039126 2.9003637628149455)
	(-11.446768983909651 4.6405820205039126 2.9003637628149455)
);

edges
(

);

blocks
(
	hex (0 1 2 3 4 5 6 7) (148 24 34) simpleGrading (1 1 1)
);

boundary
(
	inlet
	{
		type patch;
		faces
		(
			(0 4 7 3)
			(3 2 6 7)
			(0 3 2 1)
		);
	}
	midPlane
	{
		type symmetryPlane;
		faces
		(
			(0 1 5 4)
		);
	}
	outlet
	{
		type patch;
		faces
		(
			(2 6 5 1)
		);
	}
	top
	{
		type patch;
		faces
		(
			(4 5 6 7)
		);
	}
);

