/*--------------------------------*- C++ -*----------------------------------*\
| =========                 |                                                 |
| \\      /  F ield         | OpenFOAM: The Open Source CFD Toolbox           |
|  \\    /   O peration     | Version:  plus                                  |
|   \\  /    A nd           | Web:      www.OpenFOAM.com                      |
|    \\/     M anipulation  |                                                 |
\*---------------------------------------------------------------------------*/
FoamFile
{
	version    2.0;
	format     ascii;
	class      dictionary;
	object     blockMeshDict;
}

scale 1;

vertices
(
	(-11.491154276608363 0 -3.7308942456520655)
	(17.23673141491254 0 -3.7308942456520655)
	(17.23673141491254 4.663617807065082 -3.7308942456520655)
	(-11.491154276608363 4.663617807065082 -3.7308942456520655)
	(-11.491154276608363 0 2.9847153965216524)
	(17.23673141491254 0 2.9847153965216524)
	(17.23673141491254 4.663617807065082 2.9847153965216524)
	(-11.491154276608363 4.663617807065082 2.9847153965216524)
);

edges
(

);

blocks
(
	hex (0 1 2 3 4 5 6 7) (154 25 36) simpleGrading (1 1 1)
);

boundary
(
	inlet
	{
		type patch;
		faces
		(
			(0 4 7 3)
			(3 2 6 7)
			(0 3 2 1)
		);
	}
	midPlane
	{
		type symmetryPlane;
		faces
		(
			(0 1 5 4)
		);
	}
	outlet
	{
		type patch;
		faces
		(
			(2 6 5 1)
		);
	}
	top
	{
		type patch;
		faces
		(
			(4 5 6 7)
		);
	}
);

