/*--------------------------------*- C++ -*----------------------------------*\
| =========                 |                                                 |
| \\      /  F ield         | OpenFOAM: The Open Source CFD Toolbox           |
|  \\    /   O peration     | Version:  plus                                  |
|   \\  /    A nd           | Web:      www.OpenFOAM.com                      |
|    \\/     M anipulation  |                                                 |
\*---------------------------------------------------------------------------*/
FoamFile
{
	version    2.0;
	format     ascii;
	class      dictionary;
	object     blockMeshDict;
}

scale 1;

vertices
(
	(-11.03696790387734 0 -7.113670719295941)
	(16.555451855816006 0 -7.113670719295941)
	(16.555451855816006 8.191499616158962 -7.113670719295941)
	(-11.03696790387734 8.191499616158962 -7.113670719295941)
	(-11.03696790387734 0 2.8023551318438553)
	(16.555451855816006 0 2.8023551318438553)
	(16.555451855816006 8.191499616158962 2.8023551318438553)
	(-11.03696790387734 8.191499616158962 2.8023551318438553)
);

edges
(

);

blocks
(
	hex (0 1 2 3 4 5 6 7) (128 38 46) simpleGrading (1 1 1)
);

boundary
(
	inlet
	{
		type patch;
		faces
		(
			(0 4 7 3)
			(3 2 6 7)
			(0 3 2 1)
		);
	}
	midPlane
	{
		type symmetryPlane;
		faces
		(
			(0 1 5 4)
		);
	}
	outlet
	{
		type patch;
		faces
		(
			(2 6 5 1)
		);
	}
	top
	{
		type patch;
		faces
		(
			(4 5 6 7)
		);
	}
);

