/*--------------------------------*- C++ -*----------------------------------*\
| =========                 |                                                 |
| \\      /  F ield         | OpenFOAM: The Open Source CFD Toolbox           |
|  \\    /   O peration     | Version:  plus                                  |
|   \\  /    A nd           | Web:      www.OpenFOAM.com                      |
|    \\/     M anipulation  |                                                 |
\*---------------------------------------------------------------------------*/
FoamFile
{
	version    2.0;
	format     ascii;
	class      dictionary;
	object     controlDict;
}

libs                 ("libOpenFOAM.so" "libfvOptions.so" );
application          interFoam;
startFrom            latestTime;
startTime            0;
stopAt               endTime;
endTime              43.97;
deltaT               0.031404;
writeControl         adjustableRunTime;
writeInterval        0.4397;
purgeWrite           2;
writeFormat          ascii;
writePrecision       9;
writeCompression     off;
timeFormat           general;
timePrecision        9;
runTimeModifiable    yes;
adjustTimeStep       yes;
maxCo                20.0;
maxDeltaT            0.031404;
maxAlphaCo           5.0;

functions
{
	#include "forces";
}
