/*--------------------------------*- C++ -*----------------------------------*\
| =========                 |                                                 |
| \\      /  F ield         | OpenFOAM: The Open Source CFD Toolbox           |
|  \\    /   O peration     | Version:  plus                                  |
|   \\  /    A nd           | Web:      www.OpenFOAM.com                      |
|    \\/     M anipulation  |                                                 |
\*---------------------------------------------------------------------------*/
FoamFile
{
	version    2.0;
	format     ascii;
	class      dictionary;
	object     blockMeshDict;
}

scale 1;

vertices
(
	(-11.474683499361658 0 -3.758948042894336)
	(17.212025249042487 0 -3.758948042894336)
	(17.212025249042487 4.550305525608933 -3.758948042894336)
	(-11.474683499361658 4.550305525608933 -3.758948042894336)
	(-11.474683499361658 0 2.967590560179739)
	(17.212025249042487 0 2.967590560179739)
	(17.212025249042487 4.550305525608933 2.967590560179739)
	(-11.474683499361658 4.550305525608933 2.967590560179739)
);

edges
(

);

blocks
(
	hex (0 1 2 3 4 5 6 7) (145 23 34) simpleGrading (1 1 1)
);

boundary
(
	inlet
	{
		type patch;
		faces
		(
			(0 4 7 3)
			(3 2 6 7)
			(0 3 2 1)
		);
	}
	midPlane
	{
		type symmetryPlane;
		faces
		(
			(0 1 5 4)
		);
	}
	outlet
	{
		type patch;
		faces
		(
			(2 6 5 1)
		);
	}
	top
	{
		type patch;
		faces
		(
			(4 5 6 7)
		);
	}
);

